147

Ag         0.00000        0.00000        0.00000
Ag         2.46014        1.52045        0.00000
Ag         2.46014       -1.52045        0.00000
Ag        -2.46014        1.52045        0.00000
Ag        -2.46014       -1.52045        0.00000
Ag         1.52045        0.00000        2.46014
Ag         1.52045        0.00000       -2.46014
Ag        -1.52045        0.00000        2.46014
Ag        -1.52045        0.00000       -2.46014
Ag         0.00000        2.46014        1.52045
Ag         0.00000        2.46014       -1.52045
Ag         0.00000       -2.46014        1.52045
Ag         0.00000       -2.46014       -1.52045
Ag         4.92028        3.04090        0.00000
Ag         4.92028       -3.04090        0.00000
Ag        -4.92028        3.04090        0.00000
Ag        -4.92028       -3.04090        0.00000
Ag         3.04090        0.00000        4.92028
Ag         3.04090        0.00000       -4.92028
Ag        -3.04090        0.00000        4.92028
Ag        -3.04090        0.00000       -4.92028
Ag         0.00000        4.92028        3.04090
Ag         0.00000        4.92028       -3.04090
Ag         0.00000       -4.92028        3.04090
Ag         0.00000       -4.92028       -3.04090
Ag         4.92028        0.00000        0.00000
Ag         3.98059        1.52045        2.46014
Ag         3.98059       -1.52045        2.46014
Ag         3.98059        1.52045       -2.46014
Ag         3.98059       -1.52045       -2.46014
Ag         2.46014        3.98059        1.52045
Ag         1.52045        2.46014        3.98059
Ag         2.46014        3.98059       -1.52045
Ag         1.52045        2.46014       -3.98059
Ag         0.00000        4.92028        0.00000
Ag         2.46014       -3.98059        1.52045
Ag         1.52045       -2.46014        3.98059
Ag         2.46014       -3.98059       -1.52045
Ag         1.52045       -2.46014       -3.98059
Ag         0.00000       -4.92028        0.00000
Ag        -4.92028        0.00000        0.00000
Ag        -3.98059        1.52045        2.46014
Ag        -3.98059       -1.52045        2.46014
Ag        -3.98059        1.52045       -2.46014
Ag        -3.98059       -1.52045       -2.46014
Ag        -2.46014        3.98059        1.52045
Ag        -1.52045        2.46014        3.98059
Ag        -2.46014        3.98059       -1.52045
Ag        -1.52045        2.46014       -3.98059
Ag        -2.46014       -3.98059        1.52045
Ag        -1.52045       -2.46014        3.98059
Ag        -2.46014       -3.98059       -1.52045
Ag        -1.52045       -2.46014       -3.98059
Ag         0.00000        0.00000        4.92028
Ag         0.00000        0.00000       -4.92028
Ag         7.38042        4.56135        0.00000
Ag         7.38042       -4.56135        0.00000
Ag        -7.38042        4.56135        0.00000
Ag        -7.38042       -4.56135        0.00000
Ag         4.56135        0.00000        7.38042
Ag         4.56135        0.00000       -7.38042
Ag        -4.56135        0.00000        7.38042
Ag        -4.56135        0.00000       -7.38042
Ag         0.00000        7.38042        4.56135
Ag         0.00000        7.38042       -4.56135
Ag         0.00000       -7.38042        4.56135
Ag         0.00000       -7.38042       -4.56135
Ag         7.38042        1.52045        0.00000
Ag         7.38042       -1.52045        0.00000
Ag         6.44073        3.04090        2.46014
Ag         5.50104        1.52045        4.92028
Ag         6.44073       -3.04090        2.46014
Ag         5.50104       -1.52045        4.92028
Ag         6.44073        0.00000        2.46014
Ag         6.44073        3.04090       -2.46014
Ag         5.50104        1.52045       -4.92028
Ag         6.44073       -3.04090       -2.46014
Ag         5.50104       -1.52045       -4.92028
Ag         6.44073        0.00000       -2.46014
Ag         4.92028        5.50104        1.52045
Ag         2.46014        6.44073        3.04090
Ag         3.04090        2.46014        6.44073
Ag         1.52045        4.92028        5.50104
Ag         3.98059        3.98059        3.98059
Ag         4.92028        5.50104       -1.52045
Ag         2.46014        6.44073       -3.04090
Ag         3.04090        2.46014       -6.44073
Ag         1.52045        4.92028       -5.50104
Ag         3.98059        3.98059       -3.98059
Ag         0.00000        7.38042        1.52045
Ag         0.00000        7.38042       -1.52045
Ag         2.46014        6.44073        0.00000
Ag         4.92028       -5.50104        1.52045
Ag         2.46014       -6.44073        3.04090
Ag         3.04090       -2.46014        6.44073
Ag         1.52045       -4.92028        5.50104
Ag         3.98059       -3.98059        3.98059
Ag         4.92028       -5.50104       -1.52045
Ag         2.46014       -6.44073       -3.04090
Ag         3.04090       -2.46014       -6.44073
Ag         1.52045       -4.92028       -5.50104
Ag         3.98059       -3.98059       -3.98059
Ag         0.00000       -7.38042        1.52045
Ag         0.00000       -7.38042       -1.52045
Ag         2.46014       -6.44073        0.00000
Ag        -7.38042        1.52045        0.00000
Ag        -7.38042       -1.52045        0.00000
Ag        -6.44073        3.04090        2.46014
Ag        -5.50104        1.52045        4.92028
Ag        -6.44073       -3.04090        2.46014
Ag        -5.50104       -1.52045        4.92028
Ag        -6.44073        0.00000        2.46014
Ag        -6.44073        3.04090       -2.46014
Ag        -5.50104        1.52045       -4.92028
Ag        -6.44073       -3.04090       -2.46014
Ag        -5.50104       -1.52045       -4.92028
Ag        -6.44073        0.00000       -2.46014
Ag        -4.92028        5.50104        1.52045
Ag        -2.46014        6.44073        3.04090
Ag        -3.04090        2.46014        6.44073
Ag        -1.52045        4.92028        5.50104
Ag        -3.98059        3.98059        3.98059
Ag        -4.92028        5.50104       -1.52045
Ag        -2.46014        6.44073       -3.04090
Ag        -3.04090        2.46014       -6.44073
Ag        -1.52045        4.92028       -5.50104
Ag        -3.98059        3.98059       -3.98059
Ag        -2.46014        6.44073        0.00000
Ag        -4.92028       -5.50104        1.52045
Ag        -2.46014       -6.44073        3.04090
Ag        -3.04090       -2.46014        6.44073
Ag        -1.52045       -4.92028        5.50104
Ag        -3.98059       -3.98059        3.98059
Ag        -4.92028       -5.50104       -1.52045
Ag        -2.46014       -6.44073       -3.04090
Ag        -3.04090       -2.46014       -6.44073
Ag        -1.52045       -4.92028       -5.50104
Ag        -3.98059       -3.98059       -3.98059
Ag        -2.46014       -6.44073        0.00000
Ag         1.52045        0.00000        7.38042
Ag        -1.52045        0.00000        7.38042
Ag         0.00000        2.46014        6.44073
Ag         0.00000       -2.46014        6.44073
Ag         1.52045        0.00000       -7.38042
Ag        -1.52045        0.00000       -7.38042
Ag         0.00000        2.46014       -6.44073
Ag         0.00000       -2.46014       -6.44073
