         344
 Ag Ag
  Ag   0.00000   0.00000   0.00000   1
  Ag   2.89000   0.00000   0.00000   1
  Ag   5.78000   0.00000   0.00000   1
  Ag   8.67000   0.00000   0.00000   1
  Ag  11.56000   0.00000   0.00000   1
  Ag  14.45000   0.00000   0.00000   1
  Ag  17.34000   0.00000   0.00000   1
  Ag  20.23000   0.00000   0.00000   1
  Ag   0.00000   2.89000   0.00000   1
  Ag   2.89000   2.89000   0.00000   1
  Ag   5.78000   2.89000   0.00000   1
  Ag   8.67000   2.89000   0.00000   1
  Ag  11.56000   2.89000   0.00000   1
  Ag  14.45000   2.89000   0.00000   1
  Ag  17.34000   2.89000   0.00000   1
  Ag  20.23000   2.89000   0.00000   1
  Ag   0.00000   5.78000   0.00000   1
  Ag   2.89000   5.78000   0.00000   1
  Ag   5.78000   5.78000   0.00000   1
  Ag   8.67000   5.78000   0.00000   1
  Ag  11.56000   5.78000   0.00000   1
  Ag  14.45000   5.78000   0.00000   1
  Ag  17.34000   5.78000   0.00000   1
  Ag  20.23000   5.78000   0.00000   1
  Ag   0.00000   8.67000   0.00000   1
  Ag   2.89000   8.67000   0.00000   1
  Ag   5.78000   8.67000   0.00000   1
  Ag   8.67000   8.67000   0.00000   1
  Ag  11.56000   8.67000   0.00000   1
  Ag  14.45000   8.67000   0.00000   1
  Ag  17.34000   8.67000   0.00000   1
  Ag  20.23000   8.67000   0.00000   1
  Ag   0.00000  11.56000   0.00000   1
  Ag   2.89000  11.56000   0.00000   1
  Ag   5.78000  11.56000   0.00000   1
  Ag   8.67000  11.56000   0.00000   1
  Ag  11.56000  11.56000   0.00000   1
  Ag  14.45000  11.56000   0.00000   1
  Ag  17.34000  11.56000   0.00000   1
  Ag  20.23000  11.56000   0.00000   1
  Ag   0.00000  14.45000   0.00000   1
  Ag   2.89000  14.45000   0.00000   1
  Ag   5.78000  14.45000   0.00000   1
  Ag   8.67000  14.45000   0.00000   1
  Ag  11.56000  14.45000   0.00000   1
  Ag  14.45000  14.45000   0.00000   1
  Ag  17.34000  14.45000   0.00000   1
  Ag  20.23000  14.45000   0.00000   1
  Ag   0.00000  17.34000   0.00000   1
  Ag   2.89000  17.34000   0.00000   1
  Ag   5.78000  17.34000   0.00000   1
  Ag   8.67000  17.34000   0.00000   1
  Ag  11.56000  17.34000   0.00000   1
  Ag  14.45000  17.34000   0.00000   1
  Ag  17.34000  17.34000   0.00000   1
  Ag  20.23000  17.34000   0.00000   1
  Ag   0.00000  20.23000   0.00000   1
  Ag   2.89000  20.23000   0.00000   1
  Ag   5.78000  20.23000   0.00000   1
  Ag   8.67000  20.23000   0.00000   1
  Ag  11.56000  20.23000   0.00000   1
  Ag  14.45000  20.23000   0.00000   1
  Ag  17.34000  20.23000   0.00000   1
  Ag  20.23000  20.23000   0.00000   1
  Ag   1.44500   1.44500   2.04354   1
  Ag   4.33500   1.44500   2.04354   1
  Ag   7.22500   1.44500   2.04354   1
  Ag  10.11500   1.44500   2.04354   1
  Ag  13.00500   1.44500   2.04354   1
  Ag  15.89500   1.44500   2.04354   1
  Ag  18.78500   1.44500   2.04354   1
  Ag   1.44500   4.33500   2.04354   1
  Ag   4.33500   4.33500   2.04354   1
  Ag   7.22500   4.33500   2.04354   1
  Ag  10.11500   4.33500   2.04354   1
  Ag  13.00500   4.33500   2.04354   1
  Ag  15.89500   4.33500   2.04354   1
  Ag  18.78500   4.33500   2.04354   1
  Ag   1.44500   7.22500   2.04354   1
  Ag   4.33500   7.22500   2.04354   1
  Ag   7.22500   7.22500   2.04354   1
  Ag  10.11500   7.22500   2.04354   1
  Ag  13.00500   7.22500   2.04354   1
  Ag  15.89500   7.22500   2.04354   1
  Ag  18.78500   7.22500   2.04354   1
  Ag   1.44500  10.11500   2.04354   1
  Ag   4.33500  10.11500   2.04354   1
  Ag   7.22500  10.11500   2.04354   1
  Ag  10.11500  10.11500   2.04354   1
  Ag  13.00500  10.11500   2.04354   1
  Ag  15.89500  10.11500   2.04354   1
  Ag  18.78500  10.11500   2.04354   1
  Ag   1.44500  13.00500   2.04354   1
  Ag   4.33500  13.00500   2.04354   1
  Ag   7.22500  13.00500   2.04354   1
  Ag  10.11500  13.00500   2.04354   1
  Ag  13.00500  13.00500   2.04354   1
  Ag  15.89500  13.00500   2.04354   1
  Ag  18.78500  13.00500   2.04354   1
  Ag   1.44500  15.89500   2.04354   1
  Ag   4.33500  15.89500   2.04354   1
  Ag   7.22500  15.89500   2.04354   1
  Ag  10.11500  15.89500   2.04354   1
  Ag  13.00500  15.89500   2.04354   1
  Ag  15.89500  15.89500   2.04354   1
  Ag  18.78500  15.89500   2.04354   1
  Ag   1.44500  18.78500   2.04354   1
  Ag   4.33500  18.78500   2.04354   1
  Ag   7.22500  18.78500   2.04354   1
  Ag  10.11500  18.78500   2.04354   1
  Ag  13.00500  18.78500   2.04354   1
  Ag  15.89500  18.78500   2.04354   1
  Ag  18.78500  18.78500   2.04354   1
  Ag   2.89000   2.89000   4.08708   1
  Ag   5.78000   2.89000   4.08708   1
  Ag   8.67000   2.89000   4.08708   1
  Ag  11.56000   2.89000   4.08708   1
  Ag  14.45000   2.89000   4.08708   1
  Ag  17.34000   2.89000   4.08708   1
  Ag   2.89000   5.78000   4.08708   1
  Ag   5.78000   5.78000   4.08708   1
  Ag   8.67000   5.78000   4.08708   1
  Ag  11.56000   5.78000   4.08708   1
  Ag  14.45000   5.78000   4.08708   1
  Ag  17.34000   5.78000   4.08708   1
  Ag   2.89000   8.67000   4.08708   1
  Ag   5.78000   8.67000   4.08708   1
  Ag   8.67000   8.67000   4.08708   1
  Ag  11.56000   8.67000   4.08708   1
  Ag  14.45000   8.67000   4.08708   1
  Ag  17.34000   8.67000   4.08708   1
  Ag   2.89000  11.56000   4.08708   1
  Ag   5.78000  11.56000   4.08708   1
  Ag   8.67000  11.56000   4.08708   1
  Ag  11.56000  11.56000   4.08708   1
  Ag  14.45000  11.56000   4.08708   1
  Ag  17.34000  11.56000   4.08708   1
  Ag   2.89000  14.45000   4.08708   1
  Ag   5.78000  14.45000   4.08708   1
  Ag   8.67000  14.45000   4.08708   1
  Ag  11.56000  14.45000   4.08708   1
  Ag  14.45000  14.45000   4.08708   1
  Ag  17.34000  14.45000   4.08708   1
  Ag   2.89000  17.34000   4.08708   1
  Ag   5.78000  17.34000   4.08708   1
  Ag   8.67000  17.34000   4.08708   1
  Ag  11.56000  17.34000   4.08708   1
  Ag  14.45000  17.34000   4.08708   1
  Ag  17.34000  17.34000   4.08708   1
  Ag   4.33500   4.33500   6.13062   1
  Ag   7.22500   4.33500   6.13062   1
  Ag  10.11500   4.33500   6.13062   1
  Ag  13.00500   4.33500   6.13062   1
  Ag  15.89500   4.33500   6.13062   1
  Ag   4.33500   7.22500   6.13062   1
  Ag   7.22500   7.22500   6.13062   1
  Ag  10.11500   7.22500   6.13062   1
  Ag  13.00500   7.22500   6.13062   1
  Ag  15.89500   7.22500   6.13062   1
  Ag   4.33500  10.11500   6.13062   1
  Ag   7.22500  10.11500   6.13062   1
  Ag  10.11500  10.11500   6.13062   1
  Ag  13.00500  10.11500   6.13062   1
  Ag  15.89500  10.11500   6.13062   1
  Ag   4.33500  13.00500   6.13062   1
  Ag   7.22500  13.00500   6.13062   1
  Ag  10.11500  13.00500   6.13062   1
  Ag  13.00500  13.00500   6.13062   1
  Ag  15.89500  13.00500   6.13062   1
  Ag   4.33500  15.89500   6.13062   1
  Ag   7.22500  15.89500   6.13062   1
  Ag  10.11500  15.89500   6.13062   1
  Ag  13.00500  15.89500   6.13062   1
  Ag  15.89500  15.89500   6.13062   1
  Ag   5.78000   5.78000   8.17415   1
  Ag   8.67000   5.78000   8.17415   1
  Ag  11.56000   5.78000   8.17415   1
  Ag  14.45000   5.78000   8.17415   1
  Ag   5.78000   8.67000   8.17415   1
  Ag   8.67000   8.67000   8.17415   1
  Ag  11.56000   8.67000   8.17415   1
  Ag  14.45000   8.67000   8.17415   1
  Ag   5.78000  11.56000   8.17415   1
  Ag   8.67000  11.56000   8.17415   1
  Ag  11.56000  11.56000   8.17415   1
  Ag  14.45000  11.56000   8.17415   1
  Ag   5.78000  14.45000   8.17415   1
  Ag   8.67000  14.45000   8.17415   1
  Ag  11.56000  14.45000   8.17415   1
  Ag  14.45000  14.45000   8.17415   1
  Ag   7.22500   7.22500  10.21769   1
  Ag  10.11500   7.22500  10.21769   1
  Ag  13.00500   7.22500  10.21769   1
  Ag   7.22500  10.11500  10.21769   1
  Ag  10.11500  10.11500  10.21769   1
  Ag  13.00500  10.11500  10.21769   1
  Ag   7.22500  13.00500  10.21769   1
  Ag  10.11500  13.00500  10.21769   1
  Ag  13.00500  13.00500  10.21769   1
  Ag   8.67000   8.67000  12.26123   1
  Ag  11.56000   8.67000  12.26123   1
  Ag   8.67000  11.56000  12.26123   1
  Ag  11.56000  11.56000  12.26123   1
  Ag  10.11500  10.11500  14.30477   1
  Ag   1.44500   1.44500  -2.04354   1
  Ag   4.33500   1.44500  -2.04354   1
  Ag   7.22500   1.44500  -2.04354   1
  Ag  10.11500   1.44500  -2.04354   1
  Ag  13.00500   1.44500  -2.04354   1
  Ag  15.89500   1.44500  -2.04354   1
  Ag  18.78500   1.44500  -2.04354   1
  Ag   1.44500   4.33500  -2.04354   1
  Ag   4.33500   4.33500  -2.04354   1
  Ag   7.22500   4.33500  -2.04354   1
  Ag  10.11500   4.33500  -2.04354   1
  Ag  13.00500   4.33500  -2.04354   1
  Ag  15.89500   4.33500  -2.04354   1
  Ag  18.78500   4.33500  -2.04354   1
  Ag   1.44500   7.22500  -2.04354   1
  Ag   4.33500   7.22500  -2.04354   1
  Ag   7.22500   7.22500  -2.04354   1
  Ag  10.11500   7.22500  -2.04354   1
  Ag  13.00500   7.22500  -2.04354   1
  Ag  15.89500   7.22500  -2.04354   1
  Ag  18.78500   7.22500  -2.04354   1
  Ag   1.44500  10.11500  -2.04354   1
  Ag   4.33500  10.11500  -2.04354   1
  Ag   7.22500  10.11500  -2.04354   1
  Ag  10.11500  10.11500  -2.04354   1
  Ag  13.00500  10.11500  -2.04354   1
  Ag  15.89500  10.11500  -2.04354   1
  Ag  18.78500  10.11500  -2.04354   1
  Ag   1.44500  13.00500  -2.04354   1
  Ag   4.33500  13.00500  -2.04354   1
  Ag   7.22500  13.00500  -2.04354   1
  Ag  10.11500  13.00500  -2.04354   1
  Ag  13.00500  13.00500  -2.04354   1
  Ag  15.89500  13.00500  -2.04354   1
  Ag  18.78500  13.00500  -2.04354   1
  Ag   1.44500  15.89500  -2.04354   1
  Ag   4.33500  15.89500  -2.04354   1
  Ag   7.22500  15.89500  -2.04354   1
  Ag  10.11500  15.89500  -2.04354   1
  Ag  13.00500  15.89500  -2.04354   1
  Ag  15.89500  15.89500  -2.04354   1
  Ag  18.78500  15.89500  -2.04354   1
  Ag   1.44500  18.78500  -2.04354   1
  Ag   4.33500  18.78500  -2.04354   1
  Ag   7.22500  18.78500  -2.04354   1
  Ag  10.11500  18.78500  -2.04354   1
  Ag  13.00500  18.78500  -2.04354   1
  Ag  15.89500  18.78500  -2.04354   1
  Ag  18.78500  18.78500  -2.04354   1
  Ag   2.89000   2.89000  -4.08708   1
  Ag   5.78000   2.89000  -4.08708   1
  Ag   8.67000   2.89000  -4.08708   1
  Ag  11.56000   2.89000  -4.08708   1
  Ag  14.45000   2.89000  -4.08708   1
  Ag  17.34000   2.89000  -4.08708   1
  Ag   2.89000   5.78000  -4.08708   1
  Ag   5.78000   5.78000  -4.08708   1
  Ag   8.67000   5.78000  -4.08708   1
  Ag  11.56000   5.78000  -4.08708   1
  Ag  14.45000   5.78000  -4.08708   1
  Ag  17.34000   5.78000  -4.08708   1
  Ag   2.89000   8.67000  -4.08708   1
  Ag   5.78000   8.67000  -4.08708   1
  Ag   8.67000   8.67000  -4.08708   1
  Ag  11.56000   8.67000  -4.08708   1
  Ag  14.45000   8.67000  -4.08708   1
  Ag  17.34000   8.67000  -4.08708   1
  Ag   2.89000  11.56000  -4.08708   1
  Ag   5.78000  11.56000  -4.08708   1
  Ag   8.67000  11.56000  -4.08708   1
  Ag  11.56000  11.56000  -4.08708   1
  Ag  14.45000  11.56000  -4.08708   1
  Ag  17.34000  11.56000  -4.08708   1
  Ag   2.89000  14.45000  -4.08708   1
  Ag   5.78000  14.45000  -4.08708   1
  Ag   8.67000  14.45000  -4.08708   1
  Ag  11.56000  14.45000  -4.08708   1
  Ag  14.45000  14.45000  -4.08708   1
  Ag  17.34000  14.45000  -4.08708   1
  Ag   2.89000  17.34000  -4.08708   1
  Ag   5.78000  17.34000  -4.08708   1
  Ag   8.67000  17.34000  -4.08708   1
  Ag  11.56000  17.34000  -4.08708   1
  Ag  14.45000  17.34000  -4.08708   1
  Ag  17.34000  17.34000  -4.08708   1
  Ag   4.33500   4.33500  -6.13062   1
  Ag   7.22500   4.33500  -6.13062   1
  Ag  10.11500   4.33500  -6.13062   1
  Ag  13.00500   4.33500  -6.13062   1
  Ag  15.89500   4.33500  -6.13062   1
  Ag   4.33500   7.22500  -6.13062   1
  Ag   7.22500   7.22500  -6.13062   1
  Ag  10.11500   7.22500  -6.13062   1
  Ag  13.00500   7.22500  -6.13062   1
  Ag  15.89500   7.22500  -6.13062   1
  Ag   4.33500  10.11500  -6.13062   1
  Ag   7.22500  10.11500  -6.13062   1
  Ag  10.11500  10.11500  -6.13062   1
  Ag  13.00500  10.11500  -6.13062   1
  Ag  15.89500  10.11500  -6.13062   1
  Ag   4.33500  13.00500  -6.13062   1
  Ag   7.22500  13.00500  -6.13062   1
  Ag  10.11500  13.00500  -6.13062   1
  Ag  13.00500  13.00500  -6.13062   1
  Ag  15.89500  13.00500  -6.13062   1
  Ag   4.33500  15.89500  -6.13062   1
  Ag   7.22500  15.89500  -6.13062   1
  Ag  10.11500  15.89500  -6.13062   1
  Ag  13.00500  15.89500  -6.13062   1
  Ag  15.89500  15.89500  -6.13062   1
  Ag   5.78000   5.78000  -8.17415   1
  Ag   8.67000   5.78000  -8.17415   1
  Ag  11.56000   5.78000  -8.17415   1
  Ag  14.45000   5.78000  -8.17415   1
  Ag   5.78000   8.67000  -8.17415   1
  Ag   8.67000   8.67000  -8.17415   1
  Ag  11.56000   8.67000  -8.17415   1
  Ag  14.45000   8.67000  -8.17415   1
  Ag   5.78000  11.56000  -8.17415   1
  Ag   8.67000  11.56000  -8.17415   1
  Ag  11.56000  11.56000  -8.17415   1
  Ag  14.45000  11.56000  -8.17415   1
  Ag   5.78000  14.45000  -8.17415   1
  Ag   8.67000  14.45000  -8.17415   1
  Ag  11.56000  14.45000  -8.17415   1
  Ag  14.45000  14.45000  -8.17415   1
  Ag   7.22500   7.22500 -10.21769   1
  Ag  10.11500   7.22500 -10.21769   1
  Ag  13.00500   7.22500 -10.21769   1
  Ag   7.22500  10.11500 -10.21769   1
  Ag  10.11500  10.11500 -10.21769   1
  Ag  13.00500  10.11500 -10.21769   1
  Ag   7.22500  13.00500 -10.21769   1
  Ag  10.11500  13.00500 -10.21769   1
  Ag  13.00500  13.00500 -10.21769   1
  Ag   8.67000   8.67000 -12.26123   1
  Ag  11.56000   8.67000 -12.26123   1
  Ag   8.67000  11.56000 -12.26123   1
  Ag  11.56000  11.56000 -12.26123   1
  Ag  10.11500  10.11500 -14.30477   1
