         891
 Au Au
  Au   0.00000   0.00000   0.00000   1
  Au   2.88000   0.00000   0.00000   1
  Au   5.76000   0.00000   0.00000   1
  Au   8.64000   0.00000   0.00000   1
  Au  11.52000   0.00000   0.00000   1
  Au  14.40000   0.00000   0.00000   1
  Au  17.28000   0.00000   0.00000   1
  Au  20.16000   0.00000   0.00000   1
  Au  23.04000   0.00000   0.00000   1
  Au  25.92000   0.00000   0.00000   1
  Au  28.80000   0.00000   0.00000   1
  Au   0.00000   2.88000   0.00000   1
  Au   2.88000   2.88000   0.00000   1
  Au   5.76000   2.88000   0.00000   1
  Au   8.64000   2.88000   0.00000   1
  Au  11.52000   2.88000   0.00000   1
  Au  14.40000   2.88000   0.00000   1
  Au  17.28000   2.88000   0.00000   1
  Au  20.16000   2.88000   0.00000   1
  Au  23.04000   2.88000   0.00000   1
  Au  25.92000   2.88000   0.00000   1
  Au  28.80000   2.88000   0.00000   1
  Au   0.00000   5.76000   0.00000   1
  Au   2.88000   5.76000   0.00000   1
  Au   5.76000   5.76000   0.00000   1
  Au   8.64000   5.76000   0.00000   1
  Au  11.52000   5.76000   0.00000   1
  Au  14.40000   5.76000   0.00000   1
  Au  17.28000   5.76000   0.00000   1
  Au  20.16000   5.76000   0.00000   1
  Au  23.04000   5.76000   0.00000   1
  Au  25.92000   5.76000   0.00000   1
  Au  28.80000   5.76000   0.00000   1
  Au   0.00000   8.64000   0.00000   1
  Au   2.88000   8.64000   0.00000   1
  Au   5.76000   8.64000   0.00000   1
  Au   8.64000   8.64000   0.00000   1
  Au  11.52000   8.64000   0.00000   1
  Au  14.40000   8.64000   0.00000   1
  Au  17.28000   8.64000   0.00000   1
  Au  20.16000   8.64000   0.00000   1
  Au  23.04000   8.64000   0.00000   1
  Au  25.92000   8.64000   0.00000   1
  Au  28.80000   8.64000   0.00000   1
  Au   0.00000  11.52000   0.00000   1
  Au   2.88000  11.52000   0.00000   1
  Au   5.76000  11.52000   0.00000   1
  Au   8.64000  11.52000   0.00000   1
  Au  11.52000  11.52000   0.00000   1
  Au  14.40000  11.52000   0.00000   1
  Au  17.28000  11.52000   0.00000   1
  Au  20.16000  11.52000   0.00000   1
  Au  23.04000  11.52000   0.00000   1
  Au  25.92000  11.52000   0.00000   1
  Au  28.80000  11.52000   0.00000   1
  Au   0.00000  14.40000   0.00000   1
  Au   2.88000  14.40000   0.00000   1
  Au   5.76000  14.40000   0.00000   1
  Au   8.64000  14.40000   0.00000   1
  Au  11.52000  14.40000   0.00000   1
  Au  14.40000  14.40000   0.00000   1
  Au  17.28000  14.40000   0.00000   1
  Au  20.16000  14.40000   0.00000   1
  Au  23.04000  14.40000   0.00000   1
  Au  25.92000  14.40000   0.00000   1
  Au  28.80000  14.40000   0.00000   1
  Au   0.00000  17.28000   0.00000   1
  Au   2.88000  17.28000   0.00000   1
  Au   5.76000  17.28000   0.00000   1
  Au   8.64000  17.28000   0.00000   1
  Au  11.52000  17.28000   0.00000   1
  Au  14.40000  17.28000   0.00000   1
  Au  17.28000  17.28000   0.00000   1
  Au  20.16000  17.28000   0.00000   1
  Au  23.04000  17.28000   0.00000   1
  Au  25.92000  17.28000   0.00000   1
  Au  28.80000  17.28000   0.00000   1
  Au   0.00000  20.16000   0.00000   1
  Au   2.88000  20.16000   0.00000   1
  Au   5.76000  20.16000   0.00000   1
  Au   8.64000  20.16000   0.00000   1
  Au  11.52000  20.16000   0.00000   1
  Au  14.40000  20.16000   0.00000   1
  Au  17.28000  20.16000   0.00000   1
  Au  20.16000  20.16000   0.00000   1
  Au  23.04000  20.16000   0.00000   1
  Au  25.92000  20.16000   0.00000   1
  Au  28.80000  20.16000   0.00000   1
  Au   0.00000  23.04000   0.00000   1
  Au   2.88000  23.04000   0.00000   1
  Au   5.76000  23.04000   0.00000   1
  Au   8.64000  23.04000   0.00000   1
  Au  11.52000  23.04000   0.00000   1
  Au  14.40000  23.04000   0.00000   1
  Au  17.28000  23.04000   0.00000   1
  Au  20.16000  23.04000   0.00000   1
  Au  23.04000  23.04000   0.00000   1
  Au  25.92000  23.04000   0.00000   1
  Au  28.80000  23.04000   0.00000   1
  Au   0.00000  25.92000   0.00000   1
  Au   2.88000  25.92000   0.00000   1
  Au   5.76000  25.92000   0.00000   1
  Au   8.64000  25.92000   0.00000   1
  Au  11.52000  25.92000   0.00000   1
  Au  14.40000  25.92000   0.00000   1
  Au  17.28000  25.92000   0.00000   1
  Au  20.16000  25.92000   0.00000   1
  Au  23.04000  25.92000   0.00000   1
  Au  25.92000  25.92000   0.00000   1
  Au  28.80000  25.92000   0.00000   1
  Au   0.00000  28.80000   0.00000   1
  Au   2.88000  28.80000   0.00000   1
  Au   5.76000  28.80000   0.00000   1
  Au   8.64000  28.80000   0.00000   1
  Au  11.52000  28.80000   0.00000   1
  Au  14.40000  28.80000   0.00000   1
  Au  17.28000  28.80000   0.00000   1
  Au  20.16000  28.80000   0.00000   1
  Au  23.04000  28.80000   0.00000   1
  Au  25.92000  28.80000   0.00000   1
  Au  28.80000  28.80000   0.00000   1
  Au   1.44000   1.44000   2.03647   1
  Au   4.32000   1.44000   2.03647   1
  Au   7.20000   1.44000   2.03647   1
  Au  10.08000   1.44000   2.03647   1
  Au  12.96000   1.44000   2.03647   1
  Au  15.84000   1.44000   2.03647   1
  Au  18.72000   1.44000   2.03647   1
  Au  21.60000   1.44000   2.03647   1
  Au  24.48000   1.44000   2.03647   1
  Au  27.36000   1.44000   2.03647   1
  Au   1.44000   4.32000   2.03647   1
  Au   4.32000   4.32000   2.03647   1
  Au   7.20000   4.32000   2.03647   1
  Au  10.08000   4.32000   2.03647   1
  Au  12.96000   4.32000   2.03647   1
  Au  15.84000   4.32000   2.03647   1
  Au  18.72000   4.32000   2.03647   1
  Au  21.60000   4.32000   2.03647   1
  Au  24.48000   4.32000   2.03647   1
  Au  27.36000   4.32000   2.03647   1
  Au   1.44000   7.20000   2.03647   1
  Au   4.32000   7.20000   2.03647   1
  Au   7.20000   7.20000   2.03647   1
  Au  10.08000   7.20000   2.03647   1
  Au  12.96000   7.20000   2.03647   1
  Au  15.84000   7.20000   2.03647   1
  Au  18.72000   7.20000   2.03647   1
  Au  21.60000   7.20000   2.03647   1
  Au  24.48000   7.20000   2.03647   1
  Au  27.36000   7.20000   2.03647   1
  Au   1.44000  10.08000   2.03647   1
  Au   4.32000  10.08000   2.03647   1
  Au   7.20000  10.08000   2.03647   1
  Au  10.08000  10.08000   2.03647   1
  Au  12.96000  10.08000   2.03647   1
  Au  15.84000  10.08000   2.03647   1
  Au  18.72000  10.08000   2.03647   1
  Au  21.60000  10.08000   2.03647   1
  Au  24.48000  10.08000   2.03647   1
  Au  27.36000  10.08000   2.03647   1
  Au   1.44000  12.96000   2.03647   1
  Au   4.32000  12.96000   2.03647   1
  Au   7.20000  12.96000   2.03647   1
  Au  10.08000  12.96000   2.03647   1
  Au  12.96000  12.96000   2.03647   1
  Au  15.84000  12.96000   2.03647   1
  Au  18.72000  12.96000   2.03647   1
  Au  21.60000  12.96000   2.03647   1
  Au  24.48000  12.96000   2.03647   1
  Au  27.36000  12.96000   2.03647   1
  Au   1.44000  15.84000   2.03647   1
  Au   4.32000  15.84000   2.03647   1
  Au   7.20000  15.84000   2.03647   1
  Au  10.08000  15.84000   2.03647   1
  Au  12.96000  15.84000   2.03647   1
  Au  15.84000  15.84000   2.03647   1
  Au  18.72000  15.84000   2.03647   1
  Au  21.60000  15.84000   2.03647   1
  Au  24.48000  15.84000   2.03647   1
  Au  27.36000  15.84000   2.03647   1
  Au   1.44000  18.72000   2.03647   1
  Au   4.32000  18.72000   2.03647   1
  Au   7.20000  18.72000   2.03647   1
  Au  10.08000  18.72000   2.03647   1
  Au  12.96000  18.72000   2.03647   1
  Au  15.84000  18.72000   2.03647   1
  Au  18.72000  18.72000   2.03647   1
  Au  21.60000  18.72000   2.03647   1
  Au  24.48000  18.72000   2.03647   1
  Au  27.36000  18.72000   2.03647   1
  Au   1.44000  21.60000   2.03647   1
  Au   4.32000  21.60000   2.03647   1
  Au   7.20000  21.60000   2.03647   1
  Au  10.08000  21.60000   2.03647   1
  Au  12.96000  21.60000   2.03647   1
  Au  15.84000  21.60000   2.03647   1
  Au  18.72000  21.60000   2.03647   1
  Au  21.60000  21.60000   2.03647   1
  Au  24.48000  21.60000   2.03647   1
  Au  27.36000  21.60000   2.03647   1
  Au   1.44000  24.48000   2.03647   1
  Au   4.32000  24.48000   2.03647   1
  Au   7.20000  24.48000   2.03647   1
  Au  10.08000  24.48000   2.03647   1
  Au  12.96000  24.48000   2.03647   1
  Au  15.84000  24.48000   2.03647   1
  Au  18.72000  24.48000   2.03647   1
  Au  21.60000  24.48000   2.03647   1
  Au  24.48000  24.48000   2.03647   1
  Au  27.36000  24.48000   2.03647   1
  Au   1.44000  27.36000   2.03647   1
  Au   4.32000  27.36000   2.03647   1
  Au   7.20000  27.36000   2.03647   1
  Au  10.08000  27.36000   2.03647   1
  Au  12.96000  27.36000   2.03647   1
  Au  15.84000  27.36000   2.03647   1
  Au  18.72000  27.36000   2.03647   1
  Au  21.60000  27.36000   2.03647   1
  Au  24.48000  27.36000   2.03647   1
  Au  27.36000  27.36000   2.03647   1
  Au   2.88000   2.88000   4.07294   1
  Au   5.76000   2.88000   4.07294   1
  Au   8.64000   2.88000   4.07294   1
  Au  11.52000   2.88000   4.07294   1
  Au  14.40000   2.88000   4.07294   1
  Au  17.28000   2.88000   4.07294   1
  Au  20.16000   2.88000   4.07294   1
  Au  23.04000   2.88000   4.07294   1
  Au  25.92000   2.88000   4.07294   1
  Au   2.88000   5.76000   4.07294   1
  Au   5.76000   5.76000   4.07294   1
  Au   8.64000   5.76000   4.07294   1
  Au  11.52000   5.76000   4.07294   1
  Au  14.40000   5.76000   4.07294   1
  Au  17.28000   5.76000   4.07294   1
  Au  20.16000   5.76000   4.07294   1
  Au  23.04000   5.76000   4.07294   1
  Au  25.92000   5.76000   4.07294   1
  Au   2.88000   8.64000   4.07294   1
  Au   5.76000   8.64000   4.07294   1
  Au   8.64000   8.64000   4.07294   1
  Au  11.52000   8.64000   4.07294   1
  Au  14.40000   8.64000   4.07294   1
  Au  17.28000   8.64000   4.07294   1
  Au  20.16000   8.64000   4.07294   1
  Au  23.04000   8.64000   4.07294   1
  Au  25.92000   8.64000   4.07294   1
  Au   2.88000  11.52000   4.07294   1
  Au   5.76000  11.52000   4.07294   1
  Au   8.64000  11.52000   4.07294   1
  Au  11.52000  11.52000   4.07294   1
  Au  14.40000  11.52000   4.07294   1
  Au  17.28000  11.52000   4.07294   1
  Au  20.16000  11.52000   4.07294   1
  Au  23.04000  11.52000   4.07294   1
  Au  25.92000  11.52000   4.07294   1
  Au   2.88000  14.40000   4.07294   1
  Au   5.76000  14.40000   4.07294   1
  Au   8.64000  14.40000   4.07294   1
  Au  11.52000  14.40000   4.07294   1
  Au  14.40000  14.40000   4.07294   1
  Au  17.28000  14.40000   4.07294   1
  Au  20.16000  14.40000   4.07294   1
  Au  23.04000  14.40000   4.07294   1
  Au  25.92000  14.40000   4.07294   1
  Au   2.88000  17.28000   4.07294   1
  Au   5.76000  17.28000   4.07294   1
  Au   8.64000  17.28000   4.07294   1
  Au  11.52000  17.28000   4.07294   1
  Au  14.40000  17.28000   4.07294   1
  Au  17.28000  17.28000   4.07294   1
  Au  20.16000  17.28000   4.07294   1
  Au  23.04000  17.28000   4.07294   1
  Au  25.92000  17.28000   4.07294   1
  Au   2.88000  20.16000   4.07294   1
  Au   5.76000  20.16000   4.07294   1
  Au   8.64000  20.16000   4.07294   1
  Au  11.52000  20.16000   4.07294   1
  Au  14.40000  20.16000   4.07294   1
  Au  17.28000  20.16000   4.07294   1
  Au  20.16000  20.16000   4.07294   1
  Au  23.04000  20.16000   4.07294   1
  Au  25.92000  20.16000   4.07294   1
  Au   2.88000  23.04000   4.07294   1
  Au   5.76000  23.04000   4.07294   1
  Au   8.64000  23.04000   4.07294   1
  Au  11.52000  23.04000   4.07294   1
  Au  14.40000  23.04000   4.07294   1
  Au  17.28000  23.04000   4.07294   1
  Au  20.16000  23.04000   4.07294   1
  Au  23.04000  23.04000   4.07294   1
  Au  25.92000  23.04000   4.07294   1
  Au   2.88000  25.92000   4.07294   1
  Au   5.76000  25.92000   4.07294   1
  Au   8.64000  25.92000   4.07294   1
  Au  11.52000  25.92000   4.07294   1
  Au  14.40000  25.92000   4.07294   1
  Au  17.28000  25.92000   4.07294   1
  Au  20.16000  25.92000   4.07294   1
  Au  23.04000  25.92000   4.07294   1
  Au  25.92000  25.92000   4.07294   1
  Au   4.32000   4.32000   6.10940   1
  Au   7.20000   4.32000   6.10940   1
  Au  10.08000   4.32000   6.10940   1
  Au  12.96000   4.32000   6.10940   1
  Au  15.84000   4.32000   6.10940   1
  Au  18.72000   4.32000   6.10940   1
  Au  21.60000   4.32000   6.10940   1
  Au  24.48000   4.32000   6.10940   1
  Au   4.32000   7.20000   6.10940   1
  Au   7.20000   7.20000   6.10940   1
  Au  10.08000   7.20000   6.10940   1
  Au  12.96000   7.20000   6.10940   1
  Au  15.84000   7.20000   6.10940   1
  Au  18.72000   7.20000   6.10940   1
  Au  21.60000   7.20000   6.10940   1
  Au  24.48000   7.20000   6.10940   1
  Au   4.32000  10.08000   6.10940   1
  Au   7.20000  10.08000   6.10940   1
  Au  10.08000  10.08000   6.10940   1
  Au  12.96000  10.08000   6.10940   1
  Au  15.84000  10.08000   6.10940   1
  Au  18.72000  10.08000   6.10940   1
  Au  21.60000  10.08000   6.10940   1
  Au  24.48000  10.08000   6.10940   1
  Au   4.32000  12.96000   6.10940   1
  Au   7.20000  12.96000   6.10940   1
  Au  10.08000  12.96000   6.10940   1
  Au  12.96000  12.96000   6.10940   1
  Au  15.84000  12.96000   6.10940   1
  Au  18.72000  12.96000   6.10940   1
  Au  21.60000  12.96000   6.10940   1
  Au  24.48000  12.96000   6.10940   1
  Au   4.32000  15.84000   6.10940   1
  Au   7.20000  15.84000   6.10940   1
  Au  10.08000  15.84000   6.10940   1
  Au  12.96000  15.84000   6.10940   1
  Au  15.84000  15.84000   6.10940   1
  Au  18.72000  15.84000   6.10940   1
  Au  21.60000  15.84000   6.10940   1
  Au  24.48000  15.84000   6.10940   1
  Au   4.32000  18.72000   6.10940   1
  Au   7.20000  18.72000   6.10940   1
  Au  10.08000  18.72000   6.10940   1
  Au  12.96000  18.72000   6.10940   1
  Au  15.84000  18.72000   6.10940   1
  Au  18.72000  18.72000   6.10940   1
  Au  21.60000  18.72000   6.10940   1
  Au  24.48000  18.72000   6.10940   1
  Au   4.32000  21.60000   6.10940   1
  Au   7.20000  21.60000   6.10940   1
  Au  10.08000  21.60000   6.10940   1
  Au  12.96000  21.60000   6.10940   1
  Au  15.84000  21.60000   6.10940   1
  Au  18.72000  21.60000   6.10940   1
  Au  21.60000  21.60000   6.10940   1
  Au  24.48000  21.60000   6.10940   1
  Au   4.32000  24.48000   6.10940   1
  Au   7.20000  24.48000   6.10940   1
  Au  10.08000  24.48000   6.10940   1
  Au  12.96000  24.48000   6.10940   1
  Au  15.84000  24.48000   6.10940   1
  Au  18.72000  24.48000   6.10940   1
  Au  21.60000  24.48000   6.10940   1
  Au  24.48000  24.48000   6.10940   1
  Au   5.76000   5.76000   8.14587   1
  Au   8.64000   5.76000   8.14587   1
  Au  11.52000   5.76000   8.14587   1
  Au  14.40000   5.76000   8.14587   1
  Au  17.28000   5.76000   8.14587   1
  Au  20.16000   5.76000   8.14587   1
  Au  23.04000   5.76000   8.14587   1
  Au   5.76000   8.64000   8.14587   1
  Au   8.64000   8.64000   8.14587   1
  Au  11.52000   8.64000   8.14587   1
  Au  14.40000   8.64000   8.14587   1
  Au  17.28000   8.64000   8.14587   1
  Au  20.16000   8.64000   8.14587   1
  Au  23.04000   8.64000   8.14587   1
  Au   5.76000  11.52000   8.14587   1
  Au   8.64000  11.52000   8.14587   1
  Au  11.52000  11.52000   8.14587   1
  Au  14.40000  11.52000   8.14587   1
  Au  17.28000  11.52000   8.14587   1
  Au  20.16000  11.52000   8.14587   1
  Au  23.04000  11.52000   8.14587   1
  Au   5.76000  14.40000   8.14587   1
  Au   8.64000  14.40000   8.14587   1
  Au  11.52000  14.40000   8.14587   1
  Au  14.40000  14.40000   8.14587   1
  Au  17.28000  14.40000   8.14587   1
  Au  20.16000  14.40000   8.14587   1
  Au  23.04000  14.40000   8.14587   1
  Au   5.76000  17.28000   8.14587   1
  Au   8.64000  17.28000   8.14587   1
  Au  11.52000  17.28000   8.14587   1
  Au  14.40000  17.28000   8.14587   1
  Au  17.28000  17.28000   8.14587   1
  Au  20.16000  17.28000   8.14587   1
  Au  23.04000  17.28000   8.14587   1
  Au   5.76000  20.16000   8.14587   1
  Au   8.64000  20.16000   8.14587   1
  Au  11.52000  20.16000   8.14587   1
  Au  14.40000  20.16000   8.14587   1
  Au  17.28000  20.16000   8.14587   1
  Au  20.16000  20.16000   8.14587   1
  Au  23.04000  20.16000   8.14587   1
  Au   5.76000  23.04000   8.14587   1
  Au   8.64000  23.04000   8.14587   1
  Au  11.52000  23.04000   8.14587   1
  Au  14.40000  23.04000   8.14587   1
  Au  17.28000  23.04000   8.14587   1
  Au  20.16000  23.04000   8.14587   1
  Au  23.04000  23.04000   8.14587   1
  Au   7.20000   7.20000  10.18234   1
  Au  10.08000   7.20000  10.18234   1
  Au  12.96000   7.20000  10.18234   1
  Au  15.84000   7.20000  10.18234   1
  Au  18.72000   7.20000  10.18234   1
  Au  21.60000   7.20000  10.18234   1
  Au   7.20000  10.08000  10.18234   1
  Au  10.08000  10.08000  10.18234   1
  Au  12.96000  10.08000  10.18234   1
  Au  15.84000  10.08000  10.18234   1
  Au  18.72000  10.08000  10.18234   1
  Au  21.60000  10.08000  10.18234   1
  Au   7.20000  12.96000  10.18234   1
  Au  10.08000  12.96000  10.18234   1
  Au  12.96000  12.96000  10.18234   1
  Au  15.84000  12.96000  10.18234   1
  Au  18.72000  12.96000  10.18234   1
  Au  21.60000  12.96000  10.18234   1
  Au   7.20000  15.84000  10.18234   1
  Au  10.08000  15.84000  10.18234   1
  Au  12.96000  15.84000  10.18234   1
  Au  15.84000  15.84000  10.18234   1
  Au  18.72000  15.84000  10.18234   1
  Au  21.60000  15.84000  10.18234   1
  Au   7.20000  18.72000  10.18234   1
  Au  10.08000  18.72000  10.18234   1
  Au  12.96000  18.72000  10.18234   1
  Au  15.84000  18.72000  10.18234   1
  Au  18.72000  18.72000  10.18234   1
  Au  21.60000  18.72000  10.18234   1
  Au   7.20000  21.60000  10.18234   1
  Au  10.08000  21.60000  10.18234   1
  Au  12.96000  21.60000  10.18234   1
  Au  15.84000  21.60000  10.18234   1
  Au  18.72000  21.60000  10.18234   1
  Au  21.60000  21.60000  10.18234   1
  Au   8.64000   8.64000  12.21881   1
  Au  11.52000   8.64000  12.21881   1
  Au  14.40000   8.64000  12.21881   1
  Au  17.28000   8.64000  12.21881   1
  Au  20.16000   8.64000  12.21881   1
  Au   8.64000  11.52000  12.21881   1
  Au  11.52000  11.52000  12.21881   1
  Au  14.40000  11.52000  12.21881   1
  Au  17.28000  11.52000  12.21881   1
  Au  20.16000  11.52000  12.21881   1
  Au   8.64000  14.40000  12.21881   1
  Au  11.52000  14.40000  12.21881   1
  Au  14.40000  14.40000  12.21881   1
  Au  17.28000  14.40000  12.21881   1
  Au  20.16000  14.40000  12.21881   1
  Au   8.64000  17.28000  12.21881   1
  Au  11.52000  17.28000  12.21881   1
  Au  14.40000  17.28000  12.21881   1
  Au  17.28000  17.28000  12.21881   1
  Au  20.16000  17.28000  12.21881   1
  Au   8.64000  20.16000  12.21881   1
  Au  11.52000  20.16000  12.21881   1
  Au  14.40000  20.16000  12.21881   1
  Au  17.28000  20.16000  12.21881   1
  Au  20.16000  20.16000  12.21881   1
  Au  10.08000  10.08000  14.25527   1
  Au  12.96000  10.08000  14.25527   1
  Au  15.84000  10.08000  14.25527   1
  Au  18.72000  10.08000  14.25527   1
  Au  10.08000  12.96000  14.25527   1
  Au  12.96000  12.96000  14.25527   1
  Au  15.84000  12.96000  14.25527   1
  Au  18.72000  12.96000  14.25527   1
  Au  10.08000  15.84000  14.25527   1
  Au  12.96000  15.84000  14.25527   1
  Au  15.84000  15.84000  14.25527   1
  Au  18.72000  15.84000  14.25527   1
  Au  10.08000  18.72000  14.25527   1
  Au  12.96000  18.72000  14.25527   1
  Au  15.84000  18.72000  14.25527   1
  Au  18.72000  18.72000  14.25527   1
  Au  11.52000  11.52000  16.29174   1
  Au  14.40000  11.52000  16.29174   1
  Au  17.28000  11.52000  16.29174   1
  Au  11.52000  14.40000  16.29174   1
  Au  14.40000  14.40000  16.29174   1
  Au  17.28000  14.40000  16.29174   1
  Au  11.52000  17.28000  16.29174   1
  Au  14.40000  17.28000  16.29174   1
  Au  17.28000  17.28000  16.29174   1
  Au  12.96000  12.96000  18.32821   1
  Au  15.84000  12.96000  18.32821   1
  Au  12.96000  15.84000  18.32821   1
  Au  15.84000  15.84000  18.32821   1
  Au  14.40000  14.40000  20.36468   1
  Au   1.44000   1.44000  -2.03647   1
  Au   4.32000   1.44000  -2.03647   1
  Au   7.20000   1.44000  -2.03647   1
  Au  10.08000   1.44000  -2.03647   1
  Au  12.96000   1.44000  -2.03647   1
  Au  15.84000   1.44000  -2.03647   1
  Au  18.72000   1.44000  -2.03647   1
  Au  21.60000   1.44000  -2.03647   1
  Au  24.48000   1.44000  -2.03647   1
  Au  27.36000   1.44000  -2.03647   1
  Au   1.44000   4.32000  -2.03647   1
  Au   4.32000   4.32000  -2.03647   1
  Au   7.20000   4.32000  -2.03647   1
  Au  10.08000   4.32000  -2.03647   1
  Au  12.96000   4.32000  -2.03647   1
  Au  15.84000   4.32000  -2.03647   1
  Au  18.72000   4.32000  -2.03647   1
  Au  21.60000   4.32000  -2.03647   1
  Au  24.48000   4.32000  -2.03647   1
  Au  27.36000   4.32000  -2.03647   1
  Au   1.44000   7.20000  -2.03647   1
  Au   4.32000   7.20000  -2.03647   1
  Au   7.20000   7.20000  -2.03647   1
  Au  10.08000   7.20000  -2.03647   1
  Au  12.96000   7.20000  -2.03647   1
  Au  15.84000   7.20000  -2.03647   1
  Au  18.72000   7.20000  -2.03647   1
  Au  21.60000   7.20000  -2.03647   1
  Au  24.48000   7.20000  -2.03647   1
  Au  27.36000   7.20000  -2.03647   1
  Au   1.44000  10.08000  -2.03647   1
  Au   4.32000  10.08000  -2.03647   1
  Au   7.20000  10.08000  -2.03647   1
  Au  10.08000  10.08000  -2.03647   1
  Au  12.96000  10.08000  -2.03647   1
  Au  15.84000  10.08000  -2.03647   1
  Au  18.72000  10.08000  -2.03647   1
  Au  21.60000  10.08000  -2.03647   1
  Au  24.48000  10.08000  -2.03647   1
  Au  27.36000  10.08000  -2.03647   1
  Au   1.44000  12.96000  -2.03647   1
  Au   4.32000  12.96000  -2.03647   1
  Au   7.20000  12.96000  -2.03647   1
  Au  10.08000  12.96000  -2.03647   1
  Au  12.96000  12.96000  -2.03647   1
  Au  15.84000  12.96000  -2.03647   1
  Au  18.72000  12.96000  -2.03647   1
  Au  21.60000  12.96000  -2.03647   1
  Au  24.48000  12.96000  -2.03647   1
  Au  27.36000  12.96000  -2.03647   1
  Au   1.44000  15.84000  -2.03647   1
  Au   4.32000  15.84000  -2.03647   1
  Au   7.20000  15.84000  -2.03647   1
  Au  10.08000  15.84000  -2.03647   1
  Au  12.96000  15.84000  -2.03647   1
  Au  15.84000  15.84000  -2.03647   1
  Au  18.72000  15.84000  -2.03647   1
  Au  21.60000  15.84000  -2.03647   1
  Au  24.48000  15.84000  -2.03647   1
  Au  27.36000  15.84000  -2.03647   1
  Au   1.44000  18.72000  -2.03647   1
  Au   4.32000  18.72000  -2.03647   1
  Au   7.20000  18.72000  -2.03647   1
  Au  10.08000  18.72000  -2.03647   1
  Au  12.96000  18.72000  -2.03647   1
  Au  15.84000  18.72000  -2.03647   1
  Au  18.72000  18.72000  -2.03647   1
  Au  21.60000  18.72000  -2.03647   1
  Au  24.48000  18.72000  -2.03647   1
  Au  27.36000  18.72000  -2.03647   1
  Au   1.44000  21.60000  -2.03647   1
  Au   4.32000  21.60000  -2.03647   1
  Au   7.20000  21.60000  -2.03647   1
  Au  10.08000  21.60000  -2.03647   1
  Au  12.96000  21.60000  -2.03647   1
  Au  15.84000  21.60000  -2.03647   1
  Au  18.72000  21.60000  -2.03647   1
  Au  21.60000  21.60000  -2.03647   1
  Au  24.48000  21.60000  -2.03647   1
  Au  27.36000  21.60000  -2.03647   1
  Au   1.44000  24.48000  -2.03647   1
  Au   4.32000  24.48000  -2.03647   1
  Au   7.20000  24.48000  -2.03647   1
  Au  10.08000  24.48000  -2.03647   1
  Au  12.96000  24.48000  -2.03647   1
  Au  15.84000  24.48000  -2.03647   1
  Au  18.72000  24.48000  -2.03647   1
  Au  21.60000  24.48000  -2.03647   1
  Au  24.48000  24.48000  -2.03647   1
  Au  27.36000  24.48000  -2.03647   1
  Au   1.44000  27.36000  -2.03647   1
  Au   4.32000  27.36000  -2.03647   1
  Au   7.20000  27.36000  -2.03647   1
  Au  10.08000  27.36000  -2.03647   1
  Au  12.96000  27.36000  -2.03647   1
  Au  15.84000  27.36000  -2.03647   1
  Au  18.72000  27.36000  -2.03647   1
  Au  21.60000  27.36000  -2.03647   1
  Au  24.48000  27.36000  -2.03647   1
  Au  27.36000  27.36000  -2.03647   1
  Au   2.88000   2.88000  -4.07294   1
  Au   5.76000   2.88000  -4.07294   1
  Au   8.64000   2.88000  -4.07294   1
  Au  11.52000   2.88000  -4.07294   1
  Au  14.40000   2.88000  -4.07294   1
  Au  17.28000   2.88000  -4.07294   1
  Au  20.16000   2.88000  -4.07294   1
  Au  23.04000   2.88000  -4.07294   1
  Au  25.92000   2.88000  -4.07294   1
  Au   2.88000   5.76000  -4.07294   1
  Au   5.76000   5.76000  -4.07294   1
  Au   8.64000   5.76000  -4.07294   1
  Au  11.52000   5.76000  -4.07294   1
  Au  14.40000   5.76000  -4.07294   1
  Au  17.28000   5.76000  -4.07294   1
  Au  20.16000   5.76000  -4.07294   1
  Au  23.04000   5.76000  -4.07294   1
  Au  25.92000   5.76000  -4.07294   1
  Au   2.88000   8.64000  -4.07294   1
  Au   5.76000   8.64000  -4.07294   1
  Au   8.64000   8.64000  -4.07294   1
  Au  11.52000   8.64000  -4.07294   1
  Au  14.40000   8.64000  -4.07294   1
  Au  17.28000   8.64000  -4.07294   1
  Au  20.16000   8.64000  -4.07294   1
  Au  23.04000   8.64000  -4.07294   1
  Au  25.92000   8.64000  -4.07294   1
  Au   2.88000  11.52000  -4.07294   1
  Au   5.76000  11.52000  -4.07294   1
  Au   8.64000  11.52000  -4.07294   1
  Au  11.52000  11.52000  -4.07294   1
  Au  14.40000  11.52000  -4.07294   1
  Au  17.28000  11.52000  -4.07294   1
  Au  20.16000  11.52000  -4.07294   1
  Au  23.04000  11.52000  -4.07294   1
  Au  25.92000  11.52000  -4.07294   1
  Au   2.88000  14.40000  -4.07294   1
  Au   5.76000  14.40000  -4.07294   1
  Au   8.64000  14.40000  -4.07294   1
  Au  11.52000  14.40000  -4.07294   1
  Au  14.40000  14.40000  -4.07294   1
  Au  17.28000  14.40000  -4.07294   1
  Au  20.16000  14.40000  -4.07294   1
  Au  23.04000  14.40000  -4.07294   1
  Au  25.92000  14.40000  -4.07294   1
  Au   2.88000  17.28000  -4.07294   1
  Au   5.76000  17.28000  -4.07294   1
  Au   8.64000  17.28000  -4.07294   1
  Au  11.52000  17.28000  -4.07294   1
  Au  14.40000  17.28000  -4.07294   1
  Au  17.28000  17.28000  -4.07294   1
  Au  20.16000  17.28000  -4.07294   1
  Au  23.04000  17.28000  -4.07294   1
  Au  25.92000  17.28000  -4.07294   1
  Au   2.88000  20.16000  -4.07294   1
  Au   5.76000  20.16000  -4.07294   1
  Au   8.64000  20.16000  -4.07294   1
  Au  11.52000  20.16000  -4.07294   1
  Au  14.40000  20.16000  -4.07294   1
  Au  17.28000  20.16000  -4.07294   1
  Au  20.16000  20.16000  -4.07294   1
  Au  23.04000  20.16000  -4.07294   1
  Au  25.92000  20.16000  -4.07294   1
  Au   2.88000  23.04000  -4.07294   1
  Au   5.76000  23.04000  -4.07294   1
  Au   8.64000  23.04000  -4.07294   1
  Au  11.52000  23.04000  -4.07294   1
  Au  14.40000  23.04000  -4.07294   1
  Au  17.28000  23.04000  -4.07294   1
  Au  20.16000  23.04000  -4.07294   1
  Au  23.04000  23.04000  -4.07294   1
  Au  25.92000  23.04000  -4.07294   1
  Au   2.88000  25.92000  -4.07294   1
  Au   5.76000  25.92000  -4.07294   1
  Au   8.64000  25.92000  -4.07294   1
  Au  11.52000  25.92000  -4.07294   1
  Au  14.40000  25.92000  -4.07294   1
  Au  17.28000  25.92000  -4.07294   1
  Au  20.16000  25.92000  -4.07294   1
  Au  23.04000  25.92000  -4.07294   1
  Au  25.92000  25.92000  -4.07294   1
  Au   4.32000   4.32000  -6.10940   1
  Au   7.20000   4.32000  -6.10940   1
  Au  10.08000   4.32000  -6.10940   1
  Au  12.96000   4.32000  -6.10940   1
  Au  15.84000   4.32000  -6.10940   1
  Au  18.72000   4.32000  -6.10940   1
  Au  21.60000   4.32000  -6.10940   1
  Au  24.48000   4.32000  -6.10940   1
  Au   4.32000   7.20000  -6.10940   1
  Au   7.20000   7.20000  -6.10940   1
  Au  10.08000   7.20000  -6.10940   1
  Au  12.96000   7.20000  -6.10940   1
  Au  15.84000   7.20000  -6.10940   1
  Au  18.72000   7.20000  -6.10940   1
  Au  21.60000   7.20000  -6.10940   1
  Au  24.48000   7.20000  -6.10940   1
  Au   4.32000  10.08000  -6.10940   1
  Au   7.20000  10.08000  -6.10940   1
  Au  10.08000  10.08000  -6.10940   1
  Au  12.96000  10.08000  -6.10940   1
  Au  15.84000  10.08000  -6.10940   1
  Au  18.72000  10.08000  -6.10940   1
  Au  21.60000  10.08000  -6.10940   1
  Au  24.48000  10.08000  -6.10940   1
  Au   4.32000  12.96000  -6.10940   1
  Au   7.20000  12.96000  -6.10940   1
  Au  10.08000  12.96000  -6.10940   1
  Au  12.96000  12.96000  -6.10940   1
  Au  15.84000  12.96000  -6.10940   1
  Au  18.72000  12.96000  -6.10940   1
  Au  21.60000  12.96000  -6.10940   1
  Au  24.48000  12.96000  -6.10940   1
  Au   4.32000  15.84000  -6.10940   1
  Au   7.20000  15.84000  -6.10940   1
  Au  10.08000  15.84000  -6.10940   1
  Au  12.96000  15.84000  -6.10940   1
  Au  15.84000  15.84000  -6.10940   1
  Au  18.72000  15.84000  -6.10940   1
  Au  21.60000  15.84000  -6.10940   1
  Au  24.48000  15.84000  -6.10940   1
  Au   4.32000  18.72000  -6.10940   1
  Au   7.20000  18.72000  -6.10940   1
  Au  10.08000  18.72000  -6.10940   1
  Au  12.96000  18.72000  -6.10940   1
  Au  15.84000  18.72000  -6.10940   1
  Au  18.72000  18.72000  -6.10940   1
  Au  21.60000  18.72000  -6.10940   1
  Au  24.48000  18.72000  -6.10940   1
  Au   4.32000  21.60000  -6.10940   1
  Au   7.20000  21.60000  -6.10940   1
  Au  10.08000  21.60000  -6.10940   1
  Au  12.96000  21.60000  -6.10940   1
  Au  15.84000  21.60000  -6.10940   1
  Au  18.72000  21.60000  -6.10940   1
  Au  21.60000  21.60000  -6.10940   1
  Au  24.48000  21.60000  -6.10940   1
  Au   4.32000  24.48000  -6.10940   1
  Au   7.20000  24.48000  -6.10940   1
  Au  10.08000  24.48000  -6.10940   1
  Au  12.96000  24.48000  -6.10940   1
  Au  15.84000  24.48000  -6.10940   1
  Au  18.72000  24.48000  -6.10940   1
  Au  21.60000  24.48000  -6.10940   1
  Au  24.48000  24.48000  -6.10940   1
  Au   5.76000   5.76000  -8.14587   1
  Au   8.64000   5.76000  -8.14587   1
  Au  11.52000   5.76000  -8.14587   1
  Au  14.40000   5.76000  -8.14587   1
  Au  17.28000   5.76000  -8.14587   1
  Au  20.16000   5.76000  -8.14587   1
  Au  23.04000   5.76000  -8.14587   1
  Au   5.76000   8.64000  -8.14587   1
  Au   8.64000   8.64000  -8.14587   1
  Au  11.52000   8.64000  -8.14587   1
  Au  14.40000   8.64000  -8.14587   1
  Au  17.28000   8.64000  -8.14587   1
  Au  20.16000   8.64000  -8.14587   1
  Au  23.04000   8.64000  -8.14587   1
  Au   5.76000  11.52000  -8.14587   1
  Au   8.64000  11.52000  -8.14587   1
  Au  11.52000  11.52000  -8.14587   1
  Au  14.40000  11.52000  -8.14587   1
  Au  17.28000  11.52000  -8.14587   1
  Au  20.16000  11.52000  -8.14587   1
  Au  23.04000  11.52000  -8.14587   1
  Au   5.76000  14.40000  -8.14587   1
  Au   8.64000  14.40000  -8.14587   1
  Au  11.52000  14.40000  -8.14587   1
  Au  14.40000  14.40000  -8.14587   1
  Au  17.28000  14.40000  -8.14587   1
  Au  20.16000  14.40000  -8.14587   1
  Au  23.04000  14.40000  -8.14587   1
  Au   5.76000  17.28000  -8.14587   1
  Au   8.64000  17.28000  -8.14587   1
  Au  11.52000  17.28000  -8.14587   1
  Au  14.40000  17.28000  -8.14587   1
  Au  17.28000  17.28000  -8.14587   1
  Au  20.16000  17.28000  -8.14587   1
  Au  23.04000  17.28000  -8.14587   1
  Au   5.76000  20.16000  -8.14587   1
  Au   8.64000  20.16000  -8.14587   1
  Au  11.52000  20.16000  -8.14587   1
  Au  14.40000  20.16000  -8.14587   1
  Au  17.28000  20.16000  -8.14587   1
  Au  20.16000  20.16000  -8.14587   1
  Au  23.04000  20.16000  -8.14587   1
  Au   5.76000  23.04000  -8.14587   1
  Au   8.64000  23.04000  -8.14587   1
  Au  11.52000  23.04000  -8.14587   1
  Au  14.40000  23.04000  -8.14587   1
  Au  17.28000  23.04000  -8.14587   1
  Au  20.16000  23.04000  -8.14587   1
  Au  23.04000  23.04000  -8.14587   1
  Au   7.20000   7.20000 -10.18234   1
  Au  10.08000   7.20000 -10.18234   1
  Au  12.96000   7.20000 -10.18234   1
  Au  15.84000   7.20000 -10.18234   1
  Au  18.72000   7.20000 -10.18234   1
  Au  21.60000   7.20000 -10.18234   1
  Au   7.20000  10.08000 -10.18234   1
  Au  10.08000  10.08000 -10.18234   1
  Au  12.96000  10.08000 -10.18234   1
  Au  15.84000  10.08000 -10.18234   1
  Au  18.72000  10.08000 -10.18234   1
  Au  21.60000  10.08000 -10.18234   1
  Au   7.20000  12.96000 -10.18234   1
  Au  10.08000  12.96000 -10.18234   1
  Au  12.96000  12.96000 -10.18234   1
  Au  15.84000  12.96000 -10.18234   1
  Au  18.72000  12.96000 -10.18234   1
  Au  21.60000  12.96000 -10.18234   1
  Au   7.20000  15.84000 -10.18234   1
  Au  10.08000  15.84000 -10.18234   1
  Au  12.96000  15.84000 -10.18234   1
  Au  15.84000  15.84000 -10.18234   1
  Au  18.72000  15.84000 -10.18234   1
  Au  21.60000  15.84000 -10.18234   1
  Au   7.20000  18.72000 -10.18234   1
  Au  10.08000  18.72000 -10.18234   1
  Au  12.96000  18.72000 -10.18234   1
  Au  15.84000  18.72000 -10.18234   1
  Au  18.72000  18.72000 -10.18234   1
  Au  21.60000  18.72000 -10.18234   1
  Au   7.20000  21.60000 -10.18234   1
  Au  10.08000  21.60000 -10.18234   1
  Au  12.96000  21.60000 -10.18234   1
  Au  15.84000  21.60000 -10.18234   1
  Au  18.72000  21.60000 -10.18234   1
  Au  21.60000  21.60000 -10.18234   1
  Au   8.64000   8.64000 -12.21881   1
  Au  11.52000   8.64000 -12.21881   1
  Au  14.40000   8.64000 -12.21881   1
  Au  17.28000   8.64000 -12.21881   1
  Au  20.16000   8.64000 -12.21881   1
  Au   8.64000  11.52000 -12.21881   1
  Au  11.52000  11.52000 -12.21881   1
  Au  14.40000  11.52000 -12.21881   1
  Au  17.28000  11.52000 -12.21881   1
  Au  20.16000  11.52000 -12.21881   1
  Au   8.64000  14.40000 -12.21881   1
  Au  11.52000  14.40000 -12.21881   1
  Au  14.40000  14.40000 -12.21881   1
  Au  17.28000  14.40000 -12.21881   1
  Au  20.16000  14.40000 -12.21881   1
  Au   8.64000  17.28000 -12.21881   1
  Au  11.52000  17.28000 -12.21881   1
  Au  14.40000  17.28000 -12.21881   1
  Au  17.28000  17.28000 -12.21881   1
  Au  20.16000  17.28000 -12.21881   1
  Au   8.64000  20.16000 -12.21881   1
  Au  11.52000  20.16000 -12.21881   1
  Au  14.40000  20.16000 -12.21881   1
  Au  17.28000  20.16000 -12.21881   1
  Au  20.16000  20.16000 -12.21881   1
  Au  10.08000  10.08000 -14.25527   1
  Au  12.96000  10.08000 -14.25527   1
  Au  15.84000  10.08000 -14.25527   1
  Au  18.72000  10.08000 -14.25527   1
  Au  10.08000  12.96000 -14.25527   1
  Au  12.96000  12.96000 -14.25527   1
  Au  15.84000  12.96000 -14.25527   1
  Au  18.72000  12.96000 -14.25527   1
  Au  10.08000  15.84000 -14.25527   1
  Au  12.96000  15.84000 -14.25527   1
  Au  15.84000  15.84000 -14.25527   1
  Au  18.72000  15.84000 -14.25527   1
  Au  10.08000  18.72000 -14.25527   1
  Au  12.96000  18.72000 -14.25527   1
  Au  15.84000  18.72000 -14.25527   1
  Au  18.72000  18.72000 -14.25527   1
  Au  11.52000  11.52000 -16.29174   1
  Au  14.40000  11.52000 -16.29174   1
  Au  17.28000  11.52000 -16.29174   1
  Au  11.52000  14.40000 -16.29174   1
  Au  14.40000  14.40000 -16.29174   1
  Au  17.28000  14.40000 -16.29174   1
  Au  11.52000  17.28000 -16.29174   1
  Au  14.40000  17.28000 -16.29174   1
  Au  17.28000  17.28000 -16.29174   1
  Au  12.96000  12.96000 -18.32821   1
  Au  15.84000  12.96000 -18.32821   1
  Au  12.96000  15.84000 -18.32821   1
  Au  15.84000  15.84000 -18.32821   1
  Au  14.40000  14.40000 -20.36468   1
